# generated using pymatgen
data_BaLiCaAgBr6
_symmetry_space_group_name_H-M   'P 1'
_cell_length_a   7.34146458
_cell_length_b   7.34146458
_cell_length_c   7.34146500
_cell_angle_alpha   60.00000260
_cell_angle_beta   60.00000263
_cell_angle_gamma   60.00000432
_symmetry_Int_Tables_number   1
_chemical_formula_structural   BaLiCaAgBr6
_chemical_formula_sum   'Ba1 Li1 Ca1 Ag1 Br6'
_cell_volume   279.79064015
_cell_formula_units_Z   1
loop_
 _symmetry_equiv_pos_site_id
 _symmetry_equiv_pos_as_xyz
  1  'x, y, z'
loop_
 _atom_site_type_symbol
 _atom_site_label
 _atom_site_symmetry_multiplicity
 _atom_site_fract_x
 _atom_site_fract_y
 _atom_site_fract_z
 _atom_site_occupancy
  Ca  Ca0  1  0.25000000  0.25000000  0.25000000  1
  Ba  Ba1  1  0.75000000  0.75000000  0.75000000  1
  Li  Li2  1  0.00000000  0.00000000  0.00000000  1
  Ag  Ag3  1  0.50000000  0.50000000  0.50000000  1
  Br  Br4  1  0.75000000  0.75000000  0.25000000  1
  Br  Br5  1  0.25000000  0.25000000  0.75000000  1
  Br  Br6  1  0.75000000  0.25000000  0.75000000  1
  Br  Br7  1  0.25000000  0.75000000  0.25000000  1
  Br  Br8  1  0.25000000  0.75000000  0.75000000  1
  Br  Br9  1  0.75000000  0.25000000  0.25000000  1
