# generated using pymatgen
data_CaTlCuNiF6
_symmetry_space_group_name_H-M   'P 1'
_cell_length_a   7.12908326
_cell_length_b   7.12908334
_cell_length_c   7.12908300
_cell_angle_alpha   59.99999693
_cell_angle_beta   59.99999659
_cell_angle_gamma   59.99999806
_symmetry_Int_Tables_number   1
_chemical_formula_structural   CaTlCuNiF6
_chemical_formula_sum   'Ca1 Tl1 Cu1 Ni1 F6'
_cell_volume   256.20406976
_cell_formula_units_Z   1
loop_
 _symmetry_equiv_pos_site_id
 _symmetry_equiv_pos_as_xyz
  1  'x, y, z'
loop_
 _atom_site_type_symbol
 _atom_site_label
 _atom_site_symmetry_multiplicity
 _atom_site_fract_x
 _atom_site_fract_y
 _atom_site_fract_z
 _atom_site_occupancy
  Ca  Ca0  1  0.25000000  0.25000000  0.25000000  1
  Cu  Cu1  1  0.75000000  0.75000000  0.75000000  1
  Ni  Ni2  1  0.00000000  0.00000000  0.00000000  1
  Tl  Tl3  1  0.50000000  0.50000000  0.50000000  1
  F  F4  1  0.75000000  0.75000000  0.25000000  1
  F  F5  1  0.25000000  0.25000000  0.75000000  1
  F  F6  1  0.75000000  0.25000000  0.75000000  1
  F  F7  1  0.25000000  0.75000000  0.25000000  1
  F  F8  1  0.25000000  0.75000000  0.75000000  1
  F  F9  1  0.75000000  0.25000000  0.25000000  1
