# generated using pymatgen
data_Li2CdPtF6
_symmetry_space_group_name_H-M   'P 1'
_cell_length_a   5.99015800
_cell_length_b   5.99015767
_cell_length_c   5.99015800
_cell_angle_alpha   59.99999816
_cell_angle_beta   60.00000000
_cell_angle_gamma   59.99999497
_symmetry_Int_Tables_number   1
_chemical_formula_structural   Li2CdPtF6
_chemical_formula_sum   'Li2 Cd1 Pt1 F6'
_cell_volume   151.98467133
_cell_formula_units_Z   1
loop_
 _symmetry_equiv_pos_site_id
 _symmetry_equiv_pos_as_xyz
  1  'x, y, z'
loop_
 _atom_site_type_symbol
 _atom_site_label
 _atom_site_symmetry_multiplicity
 _atom_site_fract_x
 _atom_site_fract_y
 _atom_site_fract_z
 _atom_site_occupancy
  Li  Li0  1  0.25000000  0.25000000  0.25000000  1
  Li  Li1  1  0.75000000  0.75000000  0.75000000  1
  Cd  Cd2  1  0.00000000  0.00000000  0.00000000  1
  Pt  Pt3  1  0.50000000  0.50000000  0.50000000  1
  F  F4  1  0.75000000  0.75000000  0.25000000  1
  F  F5  1  0.25000000  0.25000000  0.75000000  1
  F  F6  1  0.75000000  0.25000000  0.75000000  1
  F  F7  1  0.25000000  0.75000000  0.25000000  1
  F  F8  1  0.25000000  0.75000000  0.75000000  1
  F  F9  1  0.75000000  0.25000000  0.25000000  1
