# generated using pymatgen
data_LiMgCuSnCl6
_symmetry_space_group_name_H-M   'P 1'
_cell_length_a   6.60565831
_cell_length_b   6.60565861
_cell_length_c   6.60565900
_cell_angle_alpha   60.00000308
_cell_angle_beta   60.00000158
_cell_angle_gamma   60.00000545
_symmetry_Int_Tables_number   1
_chemical_formula_structural   LiMgCuSnCl6
_chemical_formula_sum   'Li1 Mg1 Cu1 Sn1 Cl6'
_cell_volume   203.81372046
_cell_formula_units_Z   1
loop_
 _symmetry_equiv_pos_site_id
 _symmetry_equiv_pos_as_xyz
  1  'x, y, z'
loop_
 _atom_site_type_symbol
 _atom_site_label
 _atom_site_symmetry_multiplicity
 _atom_site_fract_x
 _atom_site_fract_y
 _atom_site_fract_z
 _atom_site_occupancy
  Mg  Mg0  1  0.25000000  0.25000000  0.25000000  1
  Sn  Sn1  1  0.75000000  0.75000000  0.75000000  1
  Li  Li2  1  0.00000000  0.00000000  0.00000000  1
  Cu  Cu3  1  0.50000000  0.50000000  0.50000000  1
  Cl  Cl4  1  0.75000000  0.75000000  0.25000000  1
  Cl  Cl5  1  0.25000000  0.25000000  0.75000000  1
  Cl  Cl6  1  0.75000000  0.25000000  0.75000000  1
  Cl  Cl7  1  0.25000000  0.75000000  0.25000000  1
  Cl  Cl8  1  0.25000000  0.75000000  0.75000000  1
  Cl  Cl9  1  0.75000000  0.25000000  0.25000000  1
