# generated using pymatgen
data_CsKSrVF6
_symmetry_space_group_name_H-M   'P 1'
_cell_length_a   6.96976787
_cell_length_b   6.96976829
_cell_length_c   6.96976800
_cell_angle_alpha   60.00000139
_cell_angle_beta   59.99999940
_cell_angle_gamma   59.99999885
_symmetry_Int_Tables_number   1
_chemical_formula_structural   CsKSrVF6
_chemical_formula_sum   'Cs1 K1 Sr1 V1 F6'
_cell_volume   239.40872720
_cell_formula_units_Z   1
loop_
 _symmetry_equiv_pos_site_id
 _symmetry_equiv_pos_as_xyz
  1  'x, y, z'
loop_
 _atom_site_type_symbol
 _atom_site_label
 _atom_site_symmetry_multiplicity
 _atom_site_fract_x
 _atom_site_fract_y
 _atom_site_fract_z
 _atom_site_occupancy
  Cs  Cs0  1  0.25000000  0.25000000  0.25000000  1
  K  K1  1  0.75000000  0.75000000  0.75000000  1
  V  V2  1  0.00000000  0.00000000  0.00000000  1
  Sr  Sr3  1  0.50000000  0.50000000  0.50000000  1
  F  F4  1  0.75000000  0.75000000  0.25000000  1
  F  F5  1  0.25000000  0.25000000  0.75000000  1
  F  F6  1  0.75000000  0.25000000  0.75000000  1
  F  F7  1  0.25000000  0.75000000  0.25000000  1
  F  F8  1  0.25000000  0.75000000  0.75000000  1
  F  F9  1  0.75000000  0.25000000  0.25000000  1
