# generated using pymatgen
data_K2LiScF6
_symmetry_space_group_name_H-M   'P 1'
_cell_length_a   5.75383451
_cell_length_b   5.75383423
_cell_length_c   5.75383400
_cell_angle_alpha   60.00000132
_cell_angle_beta   60.00000292
_cell_angle_gamma   60.00000034
_symmetry_Int_Tables_number   1
_chemical_formula_structural   K2LiScF6
_chemical_formula_sum   'K2 Li1 Sc1 F6'
_cell_volume   134.69673152
_cell_formula_units_Z   1
loop_
 _symmetry_equiv_pos_site_id
 _symmetry_equiv_pos_as_xyz
  1  'x, y, z'
loop_
 _atom_site_type_symbol
 _atom_site_label
 _atom_site_symmetry_multiplicity
 _atom_site_fract_x
 _atom_site_fract_y
 _atom_site_fract_z
 _atom_site_occupancy
  K  K0  1  0.25000000  0.25000000  0.25000000  1
  K  K1  1  0.75000000  0.75000000  0.75000000  1
  Li  Li2  1  0.00000000  0.00000000  0.00000000  1
  Sc  Sc3  1  0.50000000  0.50000000  0.50000000  1
  F  F4  1  0.75000000  0.75000000  0.25000000  1
  F  F5  1  0.25000000  0.25000000  0.75000000  1
  F  F6  1  0.75000000  0.25000000  0.75000000  1
  F  F7  1  0.25000000  0.75000000  0.25000000  1
  F  F8  1  0.25000000  0.75000000  0.75000000  1
  F  F9  1  0.75000000  0.25000000  0.25000000  1
