# generated using pymatgen
data_KRbMnFeCl6
_symmetry_space_group_name_H-M   'P 1'
_cell_length_a   7.07208812
_cell_length_b   7.07208828
_cell_length_c   7.07208800
_cell_angle_alpha   60.00000131
_cell_angle_beta   60.00000054
_cell_angle_gamma   60.00000113
_symmetry_Int_Tables_number   1
_chemical_formula_structural   KRbMnFeCl6
_chemical_formula_sum   'Rb1 K1 Mn1 Fe1 Cl6'
_cell_volume   250.10824259
_cell_formula_units_Z   1
loop_
 _symmetry_equiv_pos_site_id
 _symmetry_equiv_pos_as_xyz
  1  'x, y, z'
loop_
 _atom_site_type_symbol
 _atom_site_label
 _atom_site_symmetry_multiplicity
 _atom_site_fract_x
 _atom_site_fract_y
 _atom_site_fract_z
 _atom_site_occupancy
  Rb  Rb0  1  0.25000000  0.25000000  0.25000000  1
  K  K1  1  0.75000000  0.75000000  0.75000000  1
  Mn  Mn2  1  0.00000000  0.00000000  0.00000000  1
  Fe  Fe3  1  0.50000000  0.50000000  0.50000000  1
  Cl  Cl4  1  0.75000000  0.75000000  0.25000000  1
  Cl  Cl5  1  0.25000000  0.25000000  0.75000000  1
  Cl  Cl6  1  0.75000000  0.25000000  0.75000000  1
  Cl  Cl7  1  0.25000000  0.75000000  0.25000000  1
  Cl  Cl8  1  0.25000000  0.75000000  0.75000000  1
  Cl  Cl9  1  0.75000000  0.25000000  0.25000000  1
